quad plane stress-st.out
-> NextFEM model 8/28/2016 6:24:32 PM
LinearStatic nsteps 1 nmodules 2
bem tstep_all domain_all
nrm tstep_all domain_all vars 6 9 10 11 104 1 4 stype 1
domain 3d
OutputManager tstep_all dofman_all element_all
ndofman 252 nelem 216 ncrosssect 2 nmat 1 nbc 68 nic 0 nltf 2 nset 68
node 10001 coords 3 0 0 0 
node 10002 coords 3 0.200000002980232 0 0 
node 10003 coords 3 0.400000005960464 0 0 
node 10004 coords 3 0.600000023841858 0 0 
node 10005 coords 3 0.800000011920929 0 0 
node 10006 coords 3 1 0 0 
node 10007 coords 3 1.20000004768372 0 0 
node 10008 coords 3 1.39999997615814 0 0 
node 10009 coords 3 1.60000002384186 0 0 
node 10010 coords 3 1.80000007152557 0 0 
node 10011 coords 3 2 0 0 
node 10012 coords 3 2.20000004768372 0 0 
node 10013 coords 3 2.40000009536743 0 0 
node 10014 coords 3 2.60000014305115 0 0 
node 10015 coords 3 2.79999995231628 0 0 
node 10016 coords 3 3 0 0 
node 10017 coords 3 0 0.200000002980232 0 
node 10018 coords 3 0.200000002980232 0.200000002980232 0 
node 10019 coords 3 0.400000005960464 0.200000002980232 0 
node 10020 coords 3 0.600000023841858 0.200000002980232 0 
# ... 232 like lines cut
linquad3dplanestress 10001 nodes 4 10001 10002 10018 10017  crossSect 2 mat 1 
linquad3dplanestress 10002 nodes 4 10002 10003 10019 10018  crossSect 2 mat 1 
linquad3dplanestress 10003 nodes 4 10003 10004 10020 10019  crossSect 2 mat 1 
linquad3dplanestress 10004 nodes 4 10004 10005 10021 10020  crossSect 2 mat 1 
linquad3dplanestress 10005 nodes 4 10005 10006 10022 10021  crossSect 2 mat 1 
linquad3dplanestress 10006 nodes 4 10006 10007 10023 10022  crossSect 2 mat 1 
linquad3dplanestress 10007 nodes 4 10007 10008 10024 10023  crossSect 2 mat 1 
linquad3dplanestress 10008 nodes 4 10008 10009 10025 10024  crossSect 2 mat 1 
linquad3dplanestress 10009 nodes 4 10009 10010 10026 10025  crossSect 2 mat 1 
linquad3dplanestress 10010 nodes 4 10010 10011 10027 10026  crossSect 2 mat 1 
linquad3dplanestress 10011 nodes 4 10011 10012 10028 10027  crossSect 2 mat 1 
linquad3dplanestress 10012 nodes 4 10012 10013 10029 10028  crossSect 2 mat 1 
linquad3dplanestress 10013 nodes 4 10013 10014 10030 10029  crossSect 2 mat 1 
linquad3dplanestress 10014 nodes 4 10014 10015 10031 10030  crossSect 2 mat 1 
linquad3dplanestress 10015 nodes 4 10015 10016 10032 10031  crossSect 2 mat 1 
linquad3dplanestress 10016 nodes 4 10017 10018 10034 10033  crossSect 2 mat 1 
linquad3dplanestress 10017 nodes 4 10018 10019 10035 10034  crossSect 2 mat 1 
linquad3dplanestress 10018 nodes 4 10019 10020 10036 10035  crossSect 2 mat 1 
linquad3dplanestress 10019 nodes 4 10020 10021 10037 10036  crossSect 2 mat 1 
linquad3dplanestress 10020 nodes 4 10021 10022 10038 10037  crossSect 2 mat 1 
# ... 196 like lines cut
# fictitious section for LumpedMass elements
SimpleCS 1 thick 0 drillstiffness 0
SimpleCS 2 thick 0.1 drillstiffness 1e11
IsoLE 1 d 0 E 27085 n 0.2 tAlpha 0
BoundaryCondition 1 loadTimeFunction 1 DOFs 6 1 2 3 4 5 6  values 6 0 0 0 0 0 0  set 1
BoundaryCondition 2 loadTimeFunction 1 DOFs 6 1 2 3 4 5 6  values 6 0 0 0 0 0 0  set 2
BoundaryCondition 3 loadTimeFunction 1 DOFs 6 1 2 3 4 5 6  values 6 0 0 0 0 0 0  set 3
BoundaryCondition 4 loadTimeFunction 1 DOFs 6 1 2 3 4 5 6  values 6 0 0 0 0 0 0  set 4
BoundaryCondition 5 loadTimeFunction 1 DOFs 6 1 2 3 4 5 6  values 6 0 0 0 0 0 0  set 5
BoundaryCondition 6 loadTimeFunction 1 DOFs 6 1 2 3 4 5 6  values 6 0 0 0 0 0 0  set 6
BoundaryCondition 7 loadTimeFunction 1 DOFs 6 1 2 3 4 5 6  values 6 0 0 0 0 0 0  set 7
BoundaryCondition 8 loadTimeFunction 1 DOFs 6 1 2 3 4 5 6  values 6 0 0 0 0 0 0  set 8
BoundaryCondition 9 loadTimeFunction 1 DOFs 6 1 2 3 4 5 6  values 6 0 0 0 0 0 0  set 9
BoundaryCondition 10 loadTimeFunction 1 DOFs 6 1 2 3 4 5 6  values 6 0 0 0 0 0 0  set 10
BoundaryCondition 11 loadTimeFunction 1 DOFs 6 1 2 3 4 5 6  values 6 0 0 0 0 0 0  set 11
BoundaryCondition 12 loadTimeFunction 1 DOFs 6 1 2 3 4 5 6  values 6 0 0 0 0 0 0  set 12
BoundaryCondition 13 loadTimeFunction 1 DOFs 6 1 2 3 4 5 6  values 6 0 0 0 0 0 0  set 13
BoundaryCondition 14 loadTimeFunction 1 DOFs 6 1 2 3 4 5 6  values 6 0 0 0 0 0 0  set 14
BoundaryCondition 15 loadTimeFunction 1 DOFs 6 1 2 3 4 5 6  values 6 0 0 0 0 0 0  set 15
BoundaryCondition 16 loadTimeFunction 1 DOFs 6 1 2 3 4 5 6  values 6 0 0 0 0 0 0  set 16
BoundaryCondition 17 loadTimeFunction 1 DOFs 6 1 2 3 4 5 6  values 6 0 0 0 0 0 0  set 17
BoundaryCondition 18 loadTimeFunction 1 DOFs 6 1 2 3 4 5 6  values 6 0 0 0 0 0 0  set 18
BoundaryCondition 19 loadTimeFunction 1 DOFs 6 1 2 3 4 5 6  values 6 0 0 0 0 0 0  set 19
BoundaryCondition 20 loadTimeFunction 1 DOFs 6 1 2 3 4 5 6  values 6 0 0 0 0 0 0  set 20
# ... 40 like lines cut
NodalLoad 61 loadTimeFunction 2 Components 1 10 DOFs 1 1 set 61
NodalLoad 62 loadTimeFunction 2 Components 1 10 DOFs 1 1 set 62
NodalLoad 63 loadTimeFunction 2 Components 1 10 DOFs 1 1 set 63
NodalLoad 64 loadTimeFunction 2 Components 1 10 DOFs 1 1 set 64
NodalLoad 65 loadTimeFunction 2 Components 1 10 DOFs 1 1 set 65
NodalLoad 66 loadTimeFunction 2 Components 1 10 DOFs 1 1 set 66
NodalLoad 67 loadTimeFunction 2 Components 1 10 DOFs 1 1 set 67
NodalLoad 68 loadTimeFunction 2 Components 1 10 DOFs 1 1 set 68
ConstantFunction 1 f(t) 1.0
PiecewiseLinFunction 2 npoints 2 t 2 0.0 1 f(t) 2 0.0 1.0
set 1 nodes 1 10001
set 2 nodes 1 10002
set 3 nodes 1 10003
set 4 nodes 1 10004
set 5 nodes 1 10005
set 6 nodes 1 10006
set 7 nodes 1 10007
set 8 nodes 1 10008
set 9 nodes 1 10009
set 10 nodes 1 10010
set 11 nodes 1 10011
set 12 nodes 1 10012
set 13 nodes 1 10013
set 14 nodes 1 10014
set 15 nodes 1 10015
set 16 nodes 1 10016
set 17 nodes 1 10017
set 18 nodes 1 10032
set 19 nodes 1 10033
set 20 nodes 1 10048
# ... 48 like lines cut
