six_rs.out
-> NextFEM model 5/24/2016 11:45:45 AM
responsespectrum nroot 12 rtolv 1.e-6 nmodules 1 func 2 dir 1 stype 1
bem tstep_all domain_all rspec
domain 3dShell
OutputManager tstep_all dofman_all element_all
ndofman 8 nelem 12 ncrosssect 2 nmat 1 nbc 4 nic 0 nltf 2 nset 4
node 1 coords 3 0 0 0 ndofs 6 dofidmask 6 1 2 3 4 5 6
node 2 coords 3 0 0 2 ndofs 6 dofidmask 6 1 2 3 4 5 6
node 3 coords 3 3 0 0 ndofs 6 dofidmask 6 1 2 3 4 5 6
node 4 coords 3 3 0 2 ndofs 6 dofidmask 6 1 2 3 4 5 6
node 5 coords 3 0 4 0 ndofs 6 dofidmask 6 1 2 3 4 5 6
node 6 coords 3 0 4 2 ndofs 6 dofidmask 6 1 2 3 4 5 6
node 7 coords 3 3 4 0 ndofs 6 dofidmask 6 1 2 3 4 5 6
node 8 coords 3 3 4 2 ndofs 6 dofidmask 6 1 2 3 4 5 6
Beam3d 1 nodes 2 1 2 mat 1 crossSect 2 refAngle 0
Beam3d 2 nodes 2 2 4 mat 1 crossSect 2 refAngle 0
Beam3d 3 nodes 2 4 3 mat 1 crossSect 2 refAngle 0
Beam3d 4 nodes 2 5 6 mat 1 crossSect 2 refAngle 0
Beam3d 5 nodes 2 6 8 mat 1 crossSect 2 refAngle 0
Beam3d 6 nodes 2 8 7 mat 1 crossSect 2 refAngle 0
Beam3d 7 nodes 2 6 2 mat 1 crossSect 2 refAngle 0
Beam3d 8 nodes 2 8 4 mat 1 crossSect 2 refAngle 0
lumpedmass 11 nodes 1 2 crosssect 1 components 6 2.5 2.5 2.5 0 0 0
lumpedmass 12 nodes 1 4 crosssect 1 components 6 2.5 2.5 2.5 0 0 0
lumpedmass 13 nodes 1 6 crosssect 1 components 6 2.5 2.5 2.5 0 0 0
lumpedmass 14 nodes 1 8 crosssect 1 components 6 2.5 2.5 2.5 0 0 0
# fictitious section for LumpedMass elements
SimpleCS 1 thick 0 drillstiffness 0
SimpleCS 2 area 0.150000005960464 Iy 0.00112500018440187 Iz 0.00312500004656613 Ik 0.004250000230968 beamShearCoeff 0.833333333333334 thick 0.5 width 0.3
IsoLE 1 d 0 E 9400000 n 0.300000011920929 tAlpha 0
BoundaryCondition 1 loadTimeFunction 1 DOFs 3 1 2 3  values 3 0 0 0  set 1
BoundaryCondition 2 loadTimeFunction 1 DOFs 6 1 2 3 4 5 6  values 6 0 0 0 0 0 0  set 2
BoundaryCondition 3 loadTimeFunction 1 DOFs 3 1 2 3  values 3 0 0 0  set 3
BoundaryCondition 4 loadTimeFunction 1 DOFs 6 1 2 3 4 5 6  values 6 0 0 0 0 0 0  set 4
ConstantFunction 1 f(t) 1.0
PiecewiseLinFunction 2 npoints 400 t 400 0.01000000000000 0.02000000000000 0.03000000000000 0.04000000000000 0.05000000000000 0.06000000000000 0.07000000000000 0.08000000000000 0.09000000000000 0.10000000000000 0.11000000000000 0.12000000000000 0.13000000000000 0.14000000000000 0.15000000000000 0.16000000000000 0.17000000000000 0.18000000000000 0.19000000000000 0.20000000000000 0.21000000000000 0.
set 1 nodes 1 1
set 2 nodes 1 3
set 3 nodes 1 5
set 4 nodes 1 7
