mises2_heza.out
-> NextFEM model 07/23/2018 20:13:25
LinearStability nroot 5 rtolv 0.00100000004749745 nmodules 2
bem tstep_all domain_all
nrm tstep_all domain_all vars 5 9 10  1 4 37 stype 0
domain 3dShell
OutputManager tstep_all dofman_all element_all
ndofman 512 nelem 225 ncrosssect 3 nmat 2 nbc 64 nic 0 nltf 3 nset 64
node 10003 coords 3 0.400000005960464 0 0 
node 10002 coords 3 0.200000002980232 0 0 
node 10001 coords 3 0 0 0 
node 10004 coords 3 0.600000023841858 0 0 
node 10005 coords 3 0.800000011920929 0 0 
node 10006 coords 3 1 0 0 
node 10007 coords 3 1.20000004768372 0 0 
node 10008 coords 3 1.39999997615814 0 0 
node 10009 coords 3 1.60000002384186 0 0 
node 10010 coords 3 1.80000007152557 0 0 
node 10011 coords 3 2 0 0 
node 10012 coords 3 2.20000004768372 0 0 
node 10013 coords 3 2.40000009536743 0 0 
node 10014 coords 3 2.60000014305115 0 0 
node 10015 coords 3 2.79999995231628 0 0 
node 10016 coords 3 3 0 0 
node 10017 coords 3 0 0 0.200000002980232 
node 10018 coords 3 0.200000002980232 0 0.200000002980232 
node 10019 coords 3 0.400000005960464 0 0.200000002980232 
node 10020 coords 3 0.600000023841858 0 0.200000002980232 
# ... 492 like lines cut
LSpace 10226 nodes 8 10257 10258 10259 10260 10001 10002 10018 10017 mat 2 crossSect 1
LSpace 10227 nodes 8 10258 10261 10262 10259 10002 10003 10019 10018 mat 2 crossSect 1
LSpace 10228 nodes 8 10261 10263 10264 10262 10003 10004 10020 10019 mat 2 crossSect 1
LSpace 10229 nodes 8 10263 10265 10266 10264 10004 10005 10021 10020 mat 2 crossSect 1
LSpace 10230 nodes 8 10265 10267 10268 10266 10005 10006 10022 10021 mat 2 crossSect 1
LSpace 10231 nodes 8 10267 10269 10270 10268 10006 10007 10023 10022 mat 2 crossSect 1
LSpace 10232 nodes 8 10269 10271 10272 10270 10007 10008 10024 10023 mat 2 crossSect 1
LSpace 10233 nodes 8 10271 10273 10274 10272 10008 10009 10025 10024 mat 2 crossSect 1
LSpace 10234 nodes 8 10273 10275 10276 10274 10009 10010 10026 10025 mat 2 crossSect 1
LSpace 10235 nodes 8 10275 10277 10278 10276 10010 10011 10027 10026 mat 2 crossSect 1
LSpace 10236 nodes 8 10277 10279 10280 10278 10011 10012 10028 10027 mat 2 crossSect 1
LSpace 10237 nodes 8 10279 10281 10282 10280 10012 10013 10029 10028 mat 2 crossSect 1
LSpace 10238 nodes 8 10281 10283 10284 10282 10013 10014 10030 10029 mat 2 crossSect 1
LSpace 10239 nodes 8 10283 10285 10286 10284 10014 10015 10031 10030 mat 2 crossSect 1
LSpace 10240 nodes 8 10285 10287 10288 10286 10015 10016 10032 10031 mat 2 crossSect 1
LSpace 10241 nodes 8 10260 10259 10289 10290 10017 10018 10034 10033 mat 2 crossSect 1
LSpace 10242 nodes 8 10259 10262 10291 10289 10018 10019 10035 10034 mat 2 crossSect 1
LSpace 10243 nodes 8 10262 10264 10292 10291 10019 10020 10036 10035 mat 2 crossSect 1
LSpace 10244 nodes 8 10264 10266 10293 10292 10020 10021 10037 10036 mat 2 crossSect 1
LSpace 10245 nodes 8 10266 10268 10294 10293 10021 10022 10038 10037 mat 2 crossSect 1
# ... 205 like lines cut
# fictitious section for LumpedMass elements
SimpleCS 1 thick 0 drillstiffness 0
SimpleCS 2 area 0.0900000035762787 Iy 0.000675000075716525 Iz 0.000675000075716525 Ik 0.00168750016018748 shearareay 0.0750000029802322 shearareaz 0.0750000029802322 thick 0.300000011920929 width 0.300000011920929
SimpleCS 3 thick 0.00999999977648258 drillstiffness 1.e8
IsoLE 1 d 0 E 27084998 n 0.2 tAlpha 0
MisesMat 2 d 0 E 209999984 n 0.3 tAlpha 1.20000004244503E-05 sig0 275000 H 0.1 omega_crit 0 a 1
BoundaryCondition 33 loadTimeFunction 1 DOFs 3 1 2 3  values 3 0 0 0  set 33
BoundaryCondition 34 loadTimeFunction 1 DOFs 3 1 2 3  values 3 0 0 0  set 34
BoundaryCondition 35 loadTimeFunction 1 DOFs 3 1 2 3  values 3 0 0 0  set 35
BoundaryCondition 36 loadTimeFunction 1 DOFs 3 1 2 3  values 3 0 0 0  set 36
BoundaryCondition 37 loadTimeFunction 1 DOFs 3 1 2 3  values 3 0 0 0  set 37
BoundaryCondition 38 loadTimeFunction 1 DOFs 3 1 2 3  values 3 0 0 0  set 38
BoundaryCondition 39 loadTimeFunction 1 DOFs 3 1 2 3  values 3 0 0 0  set 39
BoundaryCondition 40 loadTimeFunction 1 DOFs 3 1 2 3  values 3 0 0 0  set 40
BoundaryCondition 41 loadTimeFunction 1 DOFs 3 1 2 3  values 3 0 0 0  set 41
BoundaryCondition 42 loadTimeFunction 1 DOFs 3 1 2 3  values 3 0 0 0  set 42
BoundaryCondition 43 loadTimeFunction 1 DOFs 3 1 2 3  values 3 0 0 0  set 43
BoundaryCondition 44 loadTimeFunction 1 DOFs 3 1 2 3  values 3 0 0 0  set 44
BoundaryCondition 45 loadTimeFunction 1 DOFs 3 1 2 3  values 3 0 0 0  set 45
BoundaryCondition 46 loadTimeFunction 1 DOFs 3 1 2 3  values 3 0 0 0  set 46
BoundaryCondition 47 loadTimeFunction 1 DOFs 3 1 2 3  values 3 0 0 0  set 47
BoundaryCondition 48 loadTimeFunction 1 DOFs 3 1 2 3  values 3 0 0 0  set 48
BoundaryCondition 49 loadTimeFunction 1 DOFs 3 1 2 3  values 3 0 0 0  set 49
BoundaryCondition 50 loadTimeFunction 1 DOFs 3 1 2 3  values 3 0 0 0  set 50
BoundaryCondition 51 loadTimeFunction 1 DOFs 3 1 2 3  values 3 0 0 0  set 51
BoundaryCondition 52 loadTimeFunction 1 DOFs 3 1 2 3  values 3 0 0 0  set 52
# ... 12 like lines cut
NodalLoad 1 loadTimeFunction 2 Components 1 -10 DOFs 1 3 set 1
NodalLoad 2 loadTimeFunction 2 Components 1 -10 DOFs 1 3 set 2
NodalLoad 3 loadTimeFunction 2 Components 1 -10 DOFs 1 3 set 3
NodalLoad 4 loadTimeFunction 2 Components 1 -10 DOFs 1 3 set 4
NodalLoad 5 loadTimeFunction 2 Components 1 -10 DOFs 1 3 set 5
NodalLoad 6 loadTimeFunction 2 Components 1 -10 DOFs 1 3 set 6
NodalLoad 7 loadTimeFunction 2 Components 1 -10 DOFs 1 3 set 7
NodalLoad 8 loadTimeFunction 2 Components 1 -10 DOFs 1 3 set 8
NodalLoad 9 loadTimeFunction 2 Components 1 -10 DOFs 1 3 set 9
NodalLoad 10 loadTimeFunction 2 Components 1 -10 DOFs 1 3 set 10
NodalLoad 11 loadTimeFunction 2 Components 1 -10 DOFs 1 3 set 11
NodalLoad 12 loadTimeFunction 2 Components 1 -10 DOFs 1 3 set 12
NodalLoad 13 loadTimeFunction 2 Components 1 -10 DOFs 1 3 set 13
NodalLoad 14 loadTimeFunction 2 Components 1 -10 DOFs 1 3 set 14
NodalLoad 15 loadTimeFunction 2 Components 1 -10 DOFs 1 3 set 15
NodalLoad 16 loadTimeFunction 2 Components 1 -10 DOFs 1 3 set 16
NodalLoad 17 loadTimeFunction 2 Components 1 -10 DOFs 1 3 set 17
NodalLoad 18 loadTimeFunction 2 Components 1 -10 DOFs 1 3 set 18
NodalLoad 19 loadTimeFunction 2 Components 1 -10 DOFs 1 3 set 19
NodalLoad 20 loadTimeFunction 2 Components 1 -10 DOFs 1 3 set 20
# ... 12 like lines cut
ConstantFunction 1 f(t) 1.0
ConstantFunction 2 f(t) 1.0
PiecewiseLinFunction 3 npoints 3 t 3 -1.0 0.0 1.0 f(t) 3 0.0 0.0 1.0
set 1 nodes 1 10241
set 2 nodes 1 10242
set 3 nodes 1 10243
set 4 nodes 1 10244
set 5 nodes 1 10245
set 6 nodes 1 10246
set 7 nodes 1 10247
set 8 nodes 1 10248
set 9 nodes 1 10249
set 10 nodes 1 10250
set 11 nodes 1 10251
set 12 nodes 1 10252
set 13 nodes 1 10253
set 14 nodes 1 10254
set 15 nodes 1 10255
set 16 nodes 1 10256
set 17 nodes 1 10497
set 18 nodes 1 10498
set 19 nodes 1 10499
set 20 nodes 1 10500
# ... 44 like lines cut
