test2.out
linear edge load test
LinearStatic nsteps 1 nmodules 1
bem tstep_all domain_all
domain 3dShell
OutputManager tstep_all dofman_all element_all
ndofman 3 nelem 1 ncrosssect 2 nmat 1 nbc 3 nic 0 nltf 3 nset 3
node 1 coords 3 0 0 0 
node 2 coords 3 3 0 0 
node 3 coords 3 0 0 1
Beam3d 1 nodes 2 1 2 refnode 3 mat 1 crossSect 2 boundaryLoads 2 1 1 
# fictitious section for LumpedMass elements
SimpleCS 1 thick 0 drillstiffness 0
SimpleCS 2 area 0.00103232194669545 Iy 1.59186441806014E-07 Iz 1.71011924976483E-06 Ik 8.82587958273007E-09 shearareay 0.000386630039429292 shearareaz 0.000522500078659505 thick 0.100000008940697 width 0.0550000034272671
IsoLE 1 d 0 E 209999984 n 0.3 tAlpha 1.20000004244503E-05
BoundaryCondition 2 loadTimeFunction 1 DOFs 4 1 2 3 4  values 4 0 0 0 0  set 2
BoundaryCondition 3 loadTimeFunction 1 DOFs 4 1 2 3 4  values 4 0 0 0 0  set 3
LinearEdgeLoad 1 loadTimeFunction 2 Components 2 -100 -100  DOFs 1 3
#ConstantEdgeLoad 1 loadTimeFunction 2 Components 1 -100 DOFs 1 3
ConstantFunction 1 f(t) 1.0
PiecewiseLinFunction 2 npoints 3 t 3 -1.0 0.0 1 f(t) 3 0.0 0.0 1.0
PiecewiseLinFunction 3 npoints 3 t 3 -1.0 0.0 1.0 f(t) 3 0.0 0.0 1.0
set 2 nodes 1 1
set 3 nodes 1 2
set 1 elementedges 2 1 1